11
Base pair test script for VMD
S	-2.467249	73.145776	10.327833
A	1.280124	70.910914	12.431313
P	-4.146046	71.116810	7.561841
S	-1.300851	68.965465	7.007051
A	0.364312	67.555979	11.211698
P	8.947067	63.302137	18.359464
S	8.698071	63.966093	14.479697
T	4.983377	66.385610	14.485501
P	11.731510	65.706804	12.543917
S	9.611305	67.149500	9.865707
T	6.801779	69.204612	12.351253
